# Name: EEM
# Created by ModelServer 0.9.12

# model_server_result.job_id: zl_rQEfGEabW00JoJnkvFw
# model_server_result.datetime_utc: 2026-03-16 07:45:12
# model_server_result.server_version: 0.9.12
# model_server_result.query_name: ligand
# model_server_result.source_id: pdb-bcif
# model_server_result.entry_id: 3e5f

# model_server_params.name: atom_site
# model_server_params.value: {"label_asym_id":"Q","auth_seq_id":216}

# model_server_stats.io_time_ms: 6
# model_server_stats.parse_time_ms: 6
# model_server_stats.create_model_time_ms: 1
# model_server_stats.query_time_ms: 316
# model_server_stats.encode_time_ms: 0
# model_server_stats.element_count: 27

@<TRIPOS>MOLECULE
EEM
27 29 1
****
****

@<TRIPOS>ATOM
1 C2 15.894 -7.528 -22.257 C.ar 1 EEM 0.000
2 N3 14.910 -8.366 -21.981 N.ar 1 EEM 0.000
3 C4 14.208 -8.943 -22.968 C.ar 1 EEM 0.000
4 C1' 12.510 -10.391 -21.817 C.3 1 EEM 0.000
5 C2' 13.498 -10.983 -20.811 C.3 1 EEM 0.000
6 C3' 12.648 -10.910 -19.545 C.3 1 EEM 0.000
7 C4' 12.080 -9.500 -19.711 C.3 1 EEM 0.000
8 C5' 13.216 -8.517 -19.425 C.3 1 EEM 0.000
9 O 16.917 -7.026 -16.200 O.2 1 EEM 0.000
10 C 16.214 -6.086 -16.631 C.2 1 EEM 0.000
11 OXT 15.317 -5.490 -15.995 O.3 1 EEM 0.000
12 CA 16.468 -5.633 -18.072 C.3 1 EEM 0.000
13 N 17.791 -6.095 -18.517 N.3 1 EEM 0.000
14 CB 15.401 -6.238 -18.986 C.3 1 EEM 0.000
15 CG 13.998 -5.728 -18.647 C.3 1 EEM 0.000
16 SE 12.697 -6.734 -19.513 SE 1 EEM 0.000
17 CE 11.349 -6.676 -18.254 C.3 1 EEM 0.000
18 O4' 11.740 -9.406 -21.105 O.3 1 EEM 0.000
19 O3' 11.588 -11.865 -19.614 O.3 1 EEM 0.000
20 O2' 13.724 -12.356 -21.135 O.3 1 EEM 0.000
21 N9 13.195 -9.803 -22.992 N.ar 1 EEM 0.000
22 C8 12.887 -10.036 -24.268 C.ar 1 EEM 0.000
23 N7 13.692 -9.335 -25.063 N.ar 1 EEM 0.000
24 C5 14.522 -8.647 -24.287 C.ar 1 EEM 0.000
25 N1 16.222 -7.224 -23.501 N.ar 1 EEM 0.000
26 C6 15.561 -7.758 -24.536 C.ar 1 EEM 0.000
27 N6 15.866 -7.420 -25.785 N.pl3 1 EEM 0.000
@<TRIPOS>BOND
1 1 25 ar
2 1 2 ar
3 2 3 ar
4 3 24 ar
5 3 21 ar
6 4 21 1
7 4 18 1
8 4 5 1
9 5 20 1
10 5 6 1
11 6 7 1
12 6 19 1
13 7 18 1
14 7 8 1
15 8 16 1
16 9 10 2
17 10 12 1
18 10 11 1
19 12 14 1
20 12 13 1
21 14 15 1
22 15 16 1
23 16 17 1
24 21 22 ar
25 22 23 ar
26 23 24 ar
27 24 26 ar
28 25 26 ar
29 26 27 1
@<TRIPOS>SUBSTRUCTURE
1 EEM 1
