@<TRIPOS>MOLECULE
*****
 50 52 0 0 0
SMALL
USER_CHARGES

@<TRIPOS>ATOM
      1 C2         15.9445   -7.6020  -22.3371 C.ar    1  EEM1        0.0000
      2 N3         14.9156   -8.4591  -22.0628 N.ar    1  EEM1        0.0000
      3 C4         14.2490   -9.0099  -23.1070 C.ar    1  EEM1        0.0000
      4 C1'        12.4859  -10.3973  -21.9197 C.3     1  EEM1        0.0000
      5 C2'        13.3725  -11.1995  -20.9636 C.3     1  EEM1        0.0000
      6 C3'        12.5225  -11.1288  -19.7115 C.3     1  EEM1        0.0000
      7 C4'        12.0762   -9.6507  -19.7996 C.3     1  EEM1        0.0000
      8 C5'        13.1245   -8.7255  -19.1765 C.3     1  EEM1        0.0000
      9 O          17.2246   -6.5858  -15.9981 O.2     1  EEM1        0.0000
     10 C          16.4288   -5.8057  -16.4992 C.2     1  EEM1        0.0000
     11 OXT        15.4842   -5.2554  -15.7075 O.3     1  EEM1        0.0000
     12 CA         16.5448   -5.4297  -17.9730 C.3     1  EEM1        0.0000
     13 N          17.8092   -5.9273  -18.5313 N.3     1  EEM1        0.0000
     14 CB         15.4015   -6.0273  -18.8131 C.3     1  EEM1        0.0000
     15 CG         13.9710   -5.5695  -18.5039 C.3     1  EEM1        0.0000
     16 SE         12.8236   -6.8221  -19.4432 Se      1  EEM1        0.0000
     17 CE         11.3753   -6.7001  -18.1420 C.3     1  EEM1        0.0000
     18 O4'        11.9169   -9.3349  -21.1737 O.3     1  EEM1        0.0000
     19 O3'        11.4309  -12.0236  -19.7993 O.3     1  EEM1        0.0000
     20 O2'        13.6916  -12.4985  -21.3949 O.3     1  EEM1        0.0000
     21 N9         13.2111   -9.8618  -23.0745 N.ar    1  EEM1        0.0000
     22 C8         12.9270  -10.0920  -24.3819 C.ar    1  EEM1        0.0000
     23 N7         13.7442   -9.4061  -25.2244 N.ar    1  EEM1        0.0000
     24 C5         14.5629   -8.7325  -24.3947 C.ar    1  EEM1        0.0000
     25 N1         16.2717   -7.2984  -23.6332 N.ar    1  EEM1        0.0000
     26 C6         15.5941   -7.8467  -24.6860 C.ar    1  EEM1        0.0000
     27 N6         15.9335   -7.5048  -26.0146 N.pl3   1  EEM1        0.0000
     28 H          16.5066   -7.1596  -21.5278 H       1  UNL1        0.0000
     29 H          11.6455  -11.0387  -22.2696 H       1  UNL1        0.0000
     30 H          14.3218  -10.6573  -20.7878 H       1  UNL1        0.0000
     31 H          13.0644  -11.3692  -18.7700 H       1  UNL1        0.0000
     32 H          11.1275   -9.4952  -19.2425 H       1  UNL1        0.0000
     33 H          14.1236   -8.8952  -19.6118 H       1  UNL1        0.0000
     34 H          13.2123   -8.9286  -18.0885 H       1  UNL1        0.0000
     35 HXT        14.8997   -4.5503  -16.0149 H       1  UNL1        0.0000
     36 HA         16.5506   -4.3228  -18.0640 H       1  UNL1        0.0000
     37 H1         17.8526   -6.9733  -18.4852 H       1  UNL1        0.0000
     38 H2         18.6173   -5.5327  -17.9975 H       1  UNL1        0.0000
     39 H          15.4632   -7.1291  -18.6754 H       1  UNL1        0.0000
     40 H          15.5859   -5.8035  -19.8857 H       1  UNL1        0.0000
     41 H          13.8083   -4.5125  -18.8031 H       1  UNL1        0.0000
     42 H          13.7411   -5.7145  -17.4356 H       1  UNL1        0.0000
     43 H          10.4715   -7.1947  -18.5533 H       1  UNL1        0.0000
     44 H          11.1119   -5.6313  -17.9987 H       1  UNL1        0.0000
     45 H          11.6696   -7.1488  -17.1720 H       1  UNL1        0.0000
     46 H          10.6509  -11.5796  -20.2208 H       1  UNL1        0.0000
     47 H          12.8453  -12.9768  -21.5889 H       1  UNL1        0.0000
     48 H          12.1251  -10.7345  -24.7212 H       1  UNL1        0.0000
     49 H          15.4150   -7.9022  -26.8114 H       1  UNL1        0.0000
     50 H          16.6926   -6.8328  -26.1977 H       1  UNL1        0.0000
@<TRIPOS>BOND
     1     1    25   ar
     2     1     2   ar
     3     2     3   ar
     4     3    24   ar
     5     3    21   ar
     6     4    21    1
     7     4    18    1
     8     4     5    1
     9     5    20    1
    10     5     6    1
    11     6     7    1
    12     6    19    1
    13     7    18    1
    14     7     8    1
    15     8    16    1
    16     9    10    2
    17    10    12    1
    18    10    11    1
    19    12    14    1
    20    12    13    1
    21    14    15    1
    22    15    16    1
    23    16    17    1
    24    21    22   ar
    25    22    23   ar
    26    23    24   ar
    27    24    26   ar
    28    25    26   ar
    29    26    27    1
    30     1    28    1
    31     4    29    1
    32     5    30    1
    33     6    31    1
    34     7    32    1
    35     8    33    1
    36     8    34    1
    37    11    35    1
    38    12    36    1
    39    13    37    1
    40    13    38    1
    41    14    39    1
    42    14    40    1
    43    15    41    1
    44    15    42    1
    45    17    43    1
    46    17    44    1
    47    17    45    1
    48    19    46    1
    49    20    47    1
    50    22    48    1
    51    27    49    1
    52    27    50    1
