@<TRIPOS>MOLECULE
eem
   50    52     1     0     0
SMALL
No Charge or Current Charge


@<TRIPOS>ATOM
      1 C2           0.8460     2.4120     0.8470 ca         1 eem       0.545870
      2 N3           1.0650     1.1260     0.6440 nb         1 eem      -0.662589
      3 C4           2.2990     0.9050     0.1860 ca         1 eem       0.302938
      4 C1'          2.3830    -1.6150    -0.0200 c3         1 eem       0.102554
      5 C2'          1.7990    -1.9960     1.3530 c3         1 eem       0.249788
      6 C3'          0.6860    -2.9780     0.9740 c3         1 eem       0.233249
      7 C4'          0.2070    -2.4180    -0.3680 c3         1 eem       0.038251
      8 C5'         -0.9220    -1.3980    -0.2100 c3         1 eem      -0.377766
      9 O           -4.1380    -0.9110     0.7620 o          1 eem      -0.516746
     10 C           -4.7750     0.0900     0.8370 c          1 eem       0.574496
     11 OXT         -5.8400     0.1560     1.6090 oh         1 eem      -0.550355
     12 CA          -4.4260     1.3550     0.0340 c3         1 eem       0.511669
     13 N           -4.6420     2.5920     0.7420 n3         1 eem      -1.134044
     14 CB          -2.9730     1.2780    -0.4660 c3         1 eem      -0.160427
     15 CG          -2.7930     0.2430    -1.5880 c3         1 eem      -0.262121
     16 SE          -1.0750    -0.3540    -1.7030 s4         1 eem       0.326777
     17 CE          -1.2100    -1.5380    -3.0590 c3         1 eem      -0.424469
     18 O4'          1.3370    -1.8150    -0.9550 os         1 eem      -0.401553
     19 O3'          1.1910    -4.2780     0.8500 oh         1 eem      -0.680567
     20 O2'          2.7500    -2.5150     2.2100 oh         1 eem      -0.696127
     21 N9           2.9050    -0.2870    -0.1190 na         1 eem      -0.006512
     22 C8           4.1730     0.0460    -0.5550 cc         1 eem       0.202024
     23 N7           4.4130     1.2980    -0.5450 nd         1 eem      -0.556031
     24 C5           3.2440     1.8650    -0.0790 ca         1 eem      -0.006312
     25 N1           1.6540     3.4330     0.6410 nb         1 eem      -0.775434
     26 C6           2.8770     3.1960     0.1710 ca         1 eem       0.850322
     27 N6           3.6970     4.2210    -0.0520 nh         1 eem      -1.015719
     28 H           -0.1240     2.6700     1.2330 h5         1 eem       0.054624
     29 H3           3.1990    -2.2810    -0.2640 h2         1 eem       0.102344
     30 H4           1.3780    -1.1170     1.8180 h1         1 eem       0.127080
     31 H5          -0.0950    -3.0300     1.7170 h1         1 eem       0.107187
     32 H6          -0.1190    -3.2260    -1.0090 h1         1 eem       0.132500
     33 H7          -0.7020    -0.6900     0.5740 h1         1 eem       0.186305
     34 H8          -1.8750    -1.8730    -0.0240 h1         1 eem       0.186305
     35 HXT         -6.2210     1.0250     1.6280 ho         1 eem       0.403568
     36 HA          -5.0940     1.3600    -0.8250 h1         1 eem       0.008863
     37 H1          -4.3170     2.6230     1.6860 hn         1 eem       0.425970
     38 H2          -5.5430     3.0080     0.6460 hn         1 eem       0.425970
     39 H9          -2.3340     1.0530     0.3790 hc         1 eem       0.104753
     40 H10         -2.6960     2.2580    -0.8270 hc         1 eem       0.104753
     41 H11         -3.0000     0.6860    -2.5550 h1         1 eem       0.161967
     42 H12         -3.4210    -0.6220    -1.4520 h1         1 eem       0.161967
     43 H13         -0.2360    -1.9790    -3.2080 h1         1 eem       0.205611
     44 H14         -1.4880    -0.9830    -3.9450 h1         1 eem       0.205611
     45 H15         -1.9520    -2.2930    -2.8400 h1         1 eem       0.205611
     46 H16          1.6550    -4.4030     0.0310 ho         1 eem       0.455747
     47 H17          2.7450    -3.4640     2.1530 ho         1 eem       0.460995
     48 H18          4.8640    -0.7150    -0.8580 h5         1 eem       0.145934
     49 H19          4.6370     4.0650    -0.3360 hn         1 eem       0.457584
     50 H20          3.4110     5.1380     0.2070 hn         1 eem       0.457584
@<TRIPOS>BOND
     1     1     2 ar  
     2     1    25 ar  
     3     1    28 1   
     4     2     3 ar  
     5     3    21 1   
     6     3    24 ar  
     7     4     5 1   
     8     4    18 1   
     9     4    21 1   
    10     4    29 1   
    11     5     6 1   
    12     5    20 1   
    13     5    30 1   
    14     6     7 1   
    15     6    19 1   
    16     6    31 1   
    17     7     8 1   
    18     7    18 1   
    19     7    32 1   
    20     8    16 1   
    21     8    33 1   
    22     8    34 1   
    23     9    10 2   
    24    10    11 1   
    25    10    12 1   
    26    11    35 1   
    27    12    13 1   
    28    12    14 1   
    29    12    36 1   
    30    13    37 1   
    31    13    38 1   
    32    14    15 1   
    33    14    39 1   
    34    14    40 1   
    35    15    16 1   
    36    15    41 1   
    37    15    42 1   
    38    16    17 1   
    39    17    43 1   
    40    17    44 1   
    41    17    45 1   
    42    19    46 1   
    43    20    47 1   
    44    21    22 1   
    45    22    23 2   
    46    22    48 1   
    47    23    24 1   
    48    24    26 ar  
    49    25    26 ar  
    50    26    27 1   
    51    27    49 1   
    52    27    50 1   
@<TRIPOS>SUBSTRUCTURE
     1 eem         1 TEMP              0 ****  ****    0 ROOT
