# Name: SAM
# Created by ModelServer 0.9.12

# model_server_result.job_id: VOeQ6-Gbcsr5IqrAOROrpQ
# model_server_result.datetime_utc: 2026-03-16 06:17:02
# model_server_result.server_version: 0.9.12
# model_server_result.query_name: ligand
# model_server_result.source_id: pdb-bcif
# model_server_result.entry_id: 3e5c

# model_server_params.name: atom_site
# model_server_params.value: {"label_asym_id":"Q","auth_seq_id":216}

# model_server_stats.io_time_ms: 10
# model_server_stats.parse_time_ms: 5
# model_server_stats.create_model_time_ms: 1
# model_server_stats.query_time_ms: 201
# model_server_stats.encode_time_ms: 0
# model_server_stats.element_count: 27

@<TRIPOS>MOLECULE
SAM
27 29 1
****
****

@<TRIPOS>ATOM
1 N 17.637 -6.689 25.085 N.3 1 SAM 0.000
2 CA 16.288 -6.210 25.520 C.3 1 SAM 0.000
3 C 16.105 -6.208 27.051 C.2 1 SAM 0.000
4 O 17.023 -6.549 27.811 O.co2 1 SAM 0.000
5 OXT 15.037 -5.852 27.578 O.co2 1 SAM 0.000
6 CB 15.209 -7.031 24.823 C.3 1 SAM 0.000
7 CG 13.983 -6.200 24.447 C.3 1 SAM 0.000
8 SD 12.483 -7.143 24.061 S.3 1 SAM 0.000
9 CE 11.401 -6.648 25.426 C.3 1 SAM 0.000
10 C5' 12.897 -8.827 24.613 C.3 1 SAM 0.000
11 C4' 12.125 -9.913 23.872 C.3 1 SAM 0.000
12 O4' 12.057 -9.621 22.488 O.3 1 SAM 0.000
13 C3' 12.834 -11.246 23.972 C.3 1 SAM 0.000
14 O3' 11.848 -12.236 24.083 O.3 1 SAM 0.000
15 C2' 13.570 -11.391 22.659 C.3 1 SAM 0.000
16 O2' 13.674 -12.736 22.285 O.3 1 SAM 0.000
17 C1' 12.678 -10.632 21.709 C.3 1 SAM 0.000
18 N9 13.363 -9.990 20.575 N.ar 1 SAM 0.000
19 C8 13.053 -10.244 19.271 C.ar 1 SAM 0.000
20 N7 13.841 -9.488 18.477 N.ar 1 SAM 0.000
21 C5 14.644 -8.737 19.265 C.ar 1 SAM 0.000
22 C6 15.625 -7.794 18.964 C.ar 1 SAM 0.000
23 N6 15.896 -7.500 17.692 N.pl3 1 SAM 0.000
24 N1 16.303 -7.161 19.995 N.ar 1 SAM 0.000
25 C2 16.005 -7.473 21.312 C.ar 1 SAM 0.000
26 N3 15.038 -8.418 21.597 N.ar 1 SAM 0.000
27 C4 14.351 -9.034 20.596 C.ar 1 SAM 0.000
@<TRIPOS>BOND
1 1 2 1
2 2 3 1
3 2 6 1
4 3 4 2
5 3 5 1
6 6 7 1
7 7 8 1
8 8 9 1
9 8 10 1
10 10 11 1
11 11 12 1
12 11 13 1
13 12 17 1
14 13 14 1
15 13 15 1
16 15 16 1
17 15 17 1
18 17 18 1
19 18 19 ar
20 18 27 ar
21 19 20 ar
22 20 21 ar
23 21 22 ar
24 21 27 ar
25 22 23 1
26 22 24 ar
27 24 25 ar
28 25 26 ar
29 26 27 ar
@<TRIPOS>SUBSTRUCTURE
1 SAM 1
