@<TRIPOS>MOLECULE
*****
 50 52 0 0 0
SMALL
USER_CHARGES

@<TRIPOS>ATOM
      1 N          17.5664   -6.5904   25.0973 N.3     1  SAM1       -0.3184
      2 CA         16.2819   -6.0630   25.6092 C.3     1  SAM1        0.1040
      3 C          16.3162   -6.0725   27.1585 C.2     1  SAM1        0.3217
      4 O          17.3186   -6.3058   27.8201 O.2     1  SAM1       -0.2493
      5 OXT        15.1520   -5.7193   27.7503 O.3     1  SAM1       -0.4795
      6 CB         15.1599   -6.9575   25.0608 C.3     1  SAM1       -0.0191
      7 CG         13.9663   -6.1624   24.5395 C.3     1  SAM1       -0.0132
      8 SD         12.5232   -7.1162   23.9611 S.3     1  SAM1       -0.2088
      9 CE         11.4708   -6.8420   25.4035 C.3     1  SAM1       -0.0267
     10 C5'        13.0200   -8.8210   24.3579 C.3     1  SAM1        0.0137
     11 C4'        12.0839   -9.8813   23.7621 C.3     1  SAM1        0.0979
     12 O4'        11.8920   -9.6807   22.3421 O.3     1  SAM1       -0.3472
     13 C3'        12.6996  -11.2795   23.8864 C.3     1  SAM1        0.1121
     14 O3'        11.6982  -12.3138   23.8327 O.3     1  SAM1       -0.3865
     15 C2'        13.5558  -11.3879   22.6273 C.3     1  SAM1        0.1285
     16 O2'        13.7882  -12.7514   22.2722 O.3     1  SAM1       -0.3847
     17 C1'        12.6724  -10.6565   21.6180 C.3     1  SAM1        0.1666
     18 N9         13.3377  -10.0153   20.5049 N.ar    1  SAM1       -0.2855
     19 C8         13.0094  -10.2260   19.1874 C.ar    1  SAM1        0.1004
     20 N7         13.7209   -9.4810   18.3695 N.ar    1  SAM1       -0.2306
     21 C5         14.5470   -8.7507   19.1970 C.ar    1  SAM1        0.1473
     22 C6         15.5214   -7.7736   18.9282 C.ar    1  SAM1        0.1472
     23 N6         15.8116   -7.3222   17.6462 N.pl3   1  SAM1       -0.3413
     24 N1         16.2225   -7.2576   19.9613 N.ar    1  SAM1       -0.2188
     25 C2         15.9319   -7.6943   21.2049 C.ar    1  SAM1        0.1205
     26 N3         15.0151   -8.6074   21.5872 N.ar    1  SAM1       -0.2159
     27 C4         14.3479   -9.0922   20.5274 C.ar    1  SAM1        0.1674
     28 H1         18.3100   -6.3283   25.7542 H       1  UNL1        0.1190
     29 H2         17.8008   -6.1505   24.2099 H       1  UNL1        0.1190
     30 HA         16.1870   -5.0198   25.2895 H       1  UNL1        0.0574
     31 HXT        14.4297   -5.4800   27.1459 H       1  UNL1        0.2951
     32 H          14.8511   -7.6656   25.8372 H       1  UNL1        0.0293
     33 H          15.5472   -7.5556   24.2281 H       1  UNL1        0.0293
     34 H          14.2899   -5.5843   23.6654 H       1  UNL1        0.0369
     35 H          13.6188   -5.4286   25.2712 H       1  UNL1        0.0369
     36 H          11.1282   -5.8034   25.3881 H       1  UNL1        0.0333
     37 H          12.0158   -7.0286   26.3318 H       1  UNL1        0.0333
     38 H          10.5999   -7.4988   25.3457 H       1  UNL1        0.0333
     39 H          13.0832   -8.9511   25.4434 H       1  UNL1        0.0395
     40 H          14.0124   -8.9711   23.9372 H       1  UNL1        0.0395
     41 H          11.0974   -9.8257   24.2355 H       1  UNL1        0.0631
     42 H          13.2714  -11.4378   24.8055 H       1  UNL1        0.0647
     43 H          10.8686  -11.9316   23.4893 H       1  UNL1        0.2100
     44 H          14.5240  -10.9007   22.7709 H       1  UNL1        0.0665
     45 H          13.1097  -13.2759   22.7473 H       1  UNL1        0.2101
     46 H          11.9544  -11.3652   21.1853 H       1  UNL1        0.0866
     47 H          12.2410  -10.9258   18.8837 H       1  UNL1        0.1030
     48 H          15.5183   -7.9670   16.9206 H       1  UNL1        0.1438
     49 H          16.7389   -6.9255   17.5803 H       1  UNL1        0.1438
     50 H          16.5187   -7.2491   22.0028 H       1  UNL1        0.1048
@<TRIPOS>BOND
     1     1     2    1
     2     2     3    1
     3     2     6    1
     4     3     4    2
     5     3     5    1
     6     6     7    1
     7     7     8    1
     8     8     9    1
     9     8    10    1
    10    10    11    1
    11    11    12    1
    12    11    13    1
    13    12    17    1
    14    13    14    1
    15    13    15    1
    16    15    16    1
    17    15    17    1
    18    17    18    1
    19    18    19   ar
    20    18    27   ar
    21    19    20   ar
    22    20    21   ar
    23    21    22   ar
    24    21    27   ar
    25    22    23    1
    26    22    24   ar
    27    24    25   ar
    28    25    26   ar
    29    26    27   ar
    30     1    28    1
    31     1    29    1
    32     2    30    1
    33     5    31    1
    34     6    32    1
    35     6    33    1
    36     7    34    1
    37     7    35    1
    38     9    36    1
    39     9    37    1
    40     9    38    1
    41    10    39    1
    42    10    40    1
    43    11    41    1
    44    13    42    1
    45    14    43    1
    46    15    44    1
    47    16    45    1
    48    17    46    1
    49    19    47    1
    50    23    48    1
    51    23    49    1
    52    25    50    1
