@<TRIPOS>MOLECULE
*****
 18 19 0 0 0
SMALL
GASTEIGER

@<TRIPOS>ATOM
      1 N1          34.1227   33.8645   23.1503 N.am    1  PQ0       -0.2947
      2 C2          33.4509   32.7618   23.6358 C.ar    1  PQ0        0.1949
      3 N3          33.8369   32.0846   24.6830 N.ar    1  PQ0       -0.1982
      4 C4          34.9435   32.5861   25.2761 C.ar    1  PQ0        0.1482
      5 C5          35.6767   33.6890   24.9036 C.ar    1  PQ0        0.1003
      6 C6          35.2507   34.4107   23.7349 C.ar    1  PQ0        0.2632
      7 O6          35.8081   35.4079   23.2940 O.2     1  PQ0       -0.2670
      8 C7          36.7200   33.8519   25.8396 C.ar    1  PQ0        0.0835
      9 C10          37.7204   34.8721   25.8693 C.1     1  PQ0        0.1015
     10 N11          38.5469   35.6858   25.9265 N.1     1  PQ0       -0.1908
     11 C8          36.5938   32.8263   26.7618 C.ar    1  PQ0        0.0217
     12 N9          35.5080   32.0597   26.4027 N.ar    1  PQ0       -0.3443
     13 N2          32.3331   32.3946   22.9621 N.pl3   1  PQ0       -0.3289
     14 H1          33.7760   34.2910   22.3335 H       1  PQ0        0.1716
     15 H2          37.2068   32.6648   27.5761 H       1  PQ0        0.0820
     16 H3          35.1896   31.2604   26.8813 H       1  PQ0        0.1668
     17 H4          32.0437   32.9066   22.1726 H       1  PQ0        0.1451
     18 H5         31.8107   31.6160   23.2625 H       1  PQ0        0.1451
@<TRIPOS>BOND
     1     1     2   ar
     2     1     6   am
     3     2     3   ar
     4     2    13    1
     5     3     4   ar
     6     4     5   ar
     7     4    12   ar
     8     5     6   ar
     9     5     8   ar
    10     6     7    2
    11     8     9    1
    12     8    11   ar
    13     9    10    3
    14    11    12   ar
    15     1    14    1
    16    11    15    1
    17    12    16    1
    18    13    17    1
    19    13    18    1
