@<TRIPOS>MOLECULE
pq0
   18    19     1     0     0
SMALL
No Charge or Current Charge


@<TRIPOS>ATOM
      1 N1           1.6450    -1.1670     0.0000 n          1 pq0      -0.816627
      2 C2           2.3040     0.0230     0.0000 cc         1 pq0       1.123507
      3 N3           1.7100     1.1700     0.0000 nd         1 pq0      -0.833182
      4 C4           0.3600     1.0770    -0.0000 cd         1 pq0       0.491860
      5 C5          -0.4150    -0.0580    -0.0000 cc         1 pq0      -0.292627
      6 C6           0.2440    -1.3320    -0.0000 c          1 pq0       0.771838
      7 O6          -0.2160    -2.4350    -0.0010 o          1 pq0      -0.577469
      8 C7          -1.7880     0.3760     0.0000 cc         1 pq0      -0.106002
      9 C10         -2.9760    -0.4220     0.0010 cg         1 pq0       0.462523
     10 N11         -3.9400    -1.0240     0.0000 n1         1 pq0      -0.506069
     11 C8          -1.7680     1.7290    -0.0010 cd         1 pq0      -0.224862
     12 N9          -0.4620     2.1490     0.0000 na         1 pq0      -0.300059
     13 N2           3.6490    -0.0300     0.0000 nh         1 pq0      -1.168466
     14 H1           2.1560    -2.0240    -0.0010 hn         1 pq0       0.408457
     15 H2          -2.5780     2.4250    -0.0010 h4         1 pq0       0.232923
     16 H3          -0.1480     3.0920    -0.0000 hn         1 pq0       0.364884
     17 H4           4.1550    -0.8830     0.0020 hn         1 pq0       0.484686
     18 H5           4.1490     0.8290     0.0010 hn         1 pq0       0.484686
@<TRIPOS>BOND
     1     1     2 1   
     2     1     6 1   
     3     1    14 1   
     4     2     3 2   
     5     2    13 1   
     6     3     4 1   
     7     4     5 2   
     8     4    12 1   
     9     5     6 1   
    10     5     8 1   
    11     6     7 2   
    12     8     9 1   
    13     8    11 2   
    14     9    10 3   
    15    11    12 1   
    16    11    15 1   
    17    12    16 1   
    18    13    17 1   
    19    13    18 1   
@<TRIPOS>SUBSTRUCTURE
     1 pq0         1 TEMP              0 ****  ****    0 ROOT
