# Name: SAH
# Created by ModelServer 0.9.12

# model_server_result.job_id: rWLA-Ifrh1WreHnpqVmSCw
# model_server_result.datetime_utc: 2026-03-16 07:30:42
# model_server_result.server_version: 0.9.12
# model_server_result.query_name: ligand
# model_server_result.source_id: pdb-bcif
# model_server_result.entry_id: 3e5e

# model_server_params.name: atom_site
# model_server_params.value: {"label_asym_id":"N","auth_seq_id":220}

# model_server_stats.io_time_ms: 44
# model_server_stats.parse_time_ms: 4
# model_server_stats.create_model_time_ms: 1
# model_server_stats.query_time_ms: 216
# model_server_stats.encode_time_ms: 0
# model_server_stats.element_count: 26

@<TRIPOS>MOLECULE
SAH
26 28 1
****
****

@<TRIPOS>ATOM
1 N -14.079 7.417 -16.449 N.3 1 SAH 0.000
2 CA -15.104 8.247 -17.094 C.3 1 SAH 0.000
3 CB -14.767 8.411 -18.577 C.3 1 SAH 0.000
4 CG -13.404 9.086 -18.719 C.3 1 SAH 0.000
5 SD -13.007 9.942 -20.131 S.3 1 SAH 0.000
6 C -16.448 7.582 -16.954 C.2 1 SAH 0.000
7 O -16.524 6.377 -16.897 O.2 1 SAH 0.000
8 OXT -17.564 8.327 -16.895 O.3 1 SAH 0.000
9 C5' -11.615 10.909 -20.770 C.3 1 SAH 0.000
10 C4' -11.933 11.746 -22.015 C.3 1 SAH 0.000
11 O4' -11.826 13.137 -21.773 O.3 1 SAH 0.000
12 C3' -10.935 11.515 -23.125 C.3 1 SAH 0.000
13 O3' -11.617 11.873 -24.307 O.3 1 SAH 0.000
14 C2' -9.839 12.528 -22.889 C.3 1 SAH 0.000
15 O2' -9.420 13.071 -24.122 O.3 1 SAH 0.000
16 C1' -10.523 13.602 -22.071 C.3 1 SAH 0.000
17 N9 -9.866 13.908 -20.787 N.ar 1 SAH 0.000
18 C8 -10.137 13.343 -19.567 C.ar 1 SAH 0.000
19 N7 -9.359 13.924 -18.633 N.ar 1 SAH 0.000
20 C5 -8.603 14.866 -19.240 C.ar 1 SAH 0.000
21 C6 -7.644 15.754 -18.767 C.ar 1 SAH 0.000
22 N6 -7.313 15.783 -17.482 N.pl3 1 SAH 0.000
23 N1 -7.028 16.616 -19.639 N.ar 1 SAH 0.000
24 C2 -7.352 16.602 -20.975 C.ar 1 SAH 0.000
25 N3 -8.299 15.718 -21.433 N.ar 1 SAH 0.000
26 C4 -8.913 14.868 -20.587 C.ar 1 SAH 0.000
@<TRIPOS>BOND
1 1 2 1
2 2 3 1
3 2 6 1
4 3 4 1
5 4 5 1
6 5 9 1
7 6 7 2
8 6 8 1
9 9 10 1
10 10 11 1
11 10 12 1
12 11 16 1
13 12 13 1
14 12 14 1
15 14 15 1
16 14 16 1
17 16 17 1
18 17 18 ar
19 17 26 ar
20 18 19 ar
21 19 20 ar
22 20 21 ar
23 20 26 ar
24 21 22 1
25 21 23 ar
26 23 24 ar
27 24 25 ar
28 25 26 ar
@<TRIPOS>SUBSTRUCTURE
1 SAH 1
