@<TRIPOS>MOLECULE
*****
 46 48 0 0 0
SMALL
USER_CHARGES

@<TRIPOS>ATOM
      1 N         -13.9504    7.5262  -16.4495 N.3     1  SAH1       -0.3184
      2 CA        -14.9807    8.2904  -17.1699 C.3     1  SAH1        0.1040
      3 CB        -14.7006    8.4543  -18.6706 C.3     1  SAH1       -0.0183
      4 CG        -13.4177    9.2237  -18.9943 C.3     1  SAH1       -0.0043
      5 SD        -13.3967    9.5880  -20.7865 S.3     1  SAH1       -0.1580
      6 C         -16.3357    7.5658  -17.0223 C.2     1  SAH1        0.3217
      7 O         -16.4640    6.3469  -17.0514 O.2     1  SAH1       -0.2493
      8 OXT       -17.3974    8.3978  -16.9213 O.3     1  SAH1       -0.4795
      9 C5'       -11.8843   10.6146  -20.9016 C.3     1  SAH1        0.0226
     10 C4'       -12.0472   11.6769  -22.0093 C.3     1  SAH1        0.0986
     11 O4'       -11.9122   13.0030  -21.4377 O.3     1  SAH1       -0.3471
     12 C3'       -10.9929   11.5994  -23.1082 C.3     1  SAH1        0.1121
     13 O3'       -11.4734   12.1683  -24.3436 O.3     1  SAH1       -0.3865
     14 C2'        -9.8701   12.4898  -22.5981 C.3     1  SAH1        0.1285
     15 O2'        -9.1141   13.0103  -23.6913 O.3     1  SAH1       -0.3847
     16 C1'       -10.6236   13.5654  -21.8061 C.3     1  SAH1        0.1666
     17 N9         -9.9327   13.9817  -20.5961 N.ar    1  SAH1       -0.2855
     18 C8        -10.1716   13.5430  -19.3197 C.ar    1  SAH1        0.1004
     19 N7         -9.3205   14.0387  -18.4494 N.ar    1  SAH1       -0.2306
     20 C5         -8.5365   14.8976  -19.1871 C.ar    1  SAH1        0.1473
     21 C6         -7.4805   15.7484  -18.8242 C.ar    1  SAH1        0.1472
     22 N6         -6.9928   15.8301  -17.5251 N.pl3   1  SAH1       -0.3413
     23 N1         -6.9360   16.5400  -19.7739 N.ar    1  SAH1       -0.2188
     24 C2         -7.4142   16.4447  -21.0357 C.ar    1  SAH1        0.1205
     25 N3         -8.4024   15.6521  -21.5044 N.ar    1  SAH1       -0.2159
     26 C4         -8.9203   14.9018  -20.5196 C.ar    1  SAH1        0.1674
     27 H1        -13.0109    7.7720  -16.7451 H       1  <1>         0.1190
     28 H2        -14.0764    6.5308  -16.6636 H       1  <1>         0.1190
     29 H3        -15.0522    9.2708  -16.6863 H       1  <1>         0.0574
     30 H4        -15.5605    8.9804  -19.1091 H       1  <1>         0.0293
     31 H5        -14.6704    7.4664  -19.1503 H       1  <1>         0.0293
     32 H6        -12.5327    8.6299  -18.7468 H       1  <1>         0.0377
     33 H7        -13.3860   10.1634  -18.4339 H       1  <1>         0.0377
     34 H8        -17.1675    9.3447  -16.8903 H       1  <1>         0.2951
     35 H9        -11.0481    9.9392  -21.1051 H       1  <1>         0.0402
     36 H10       -11.7196   11.0807  -19.9299 H       1  <1>         0.0402
     37 H11       -13.0514   11.6448  -22.4462 H       1  <1>         0.0632
     38 H12       -10.6604   10.5835  -23.3393 H       1  <1>         0.0647
     39 H13       -12.2772   12.6920  -24.1665 H       1  <1>         0.2100
     40 H14        -9.1909   11.9242  -21.9512 H       1  <1>         0.0665
     41 H15        -9.6957   12.9512  -24.4803 H       1  <1>         0.2101
     42 H16       -10.8125   14.4666  -22.4014 H       1  <1>         0.0866
     43 H17       -10.9789   12.8718  -19.0689 H       1  <1>         0.1030
     44 H18        -7.6452   15.4786  -16.8325 H       1  <1>         0.1438
     45 H19        -6.5440   16.7170  -17.3406 H       1  <1>         0.1438
     46 H20        -6.9415   17.0964  -21.7655 H       1  <1>         0.1048
@<TRIPOS>BOND
     1     1     2    1
     2     2     3    1
     3     2     6    1
     4     3     4    1
     5     4     5    1
     6     5     9    1
     7     6     7    2
     8     6     8    1
     9     9    10    1
    10    10    11    1
    11    10    12    1
    12    11    16    1
    13    12    13    1
    14    12    14    1
    15    14    15    1
    16    14    16    1
    17    16    17    1
    18    17    18   ar
    19    17    26   ar
    20    18    19   ar
    21    19    20   ar
    22    20    21   ar
    23    20    26   ar
    24    21    22    1
    25    21    23   ar
    26    23    24   ar
    27    24    25   ar
    28    25    26   ar
    29     1    27    1
    30     1    28    1
    31     2    29    1
    32     3    30    1
    33     3    31    1
    34     4    32    1
    35     4    33    1
    36     8    34    1
    37     9    35    1
    38     9    36    1
    39    10    37    1
    40    12    38    1
    41    13    39    1
    42    14    40    1
    43    15    41    1
    44    16    42    1
    45    18    43    1
    46    22    44    1
    47    22    45    1
    48    24    46    1
