@<TRIPOS>MOLECULE
sah
   46    48     1     0     0
SMALL
No Charge or Current Charge


@<TRIPOS>ATOM
      1 N           -6.3570    -1.8660    -1.3230 n3         1 sah      -1.003613
      2 CA          -6.4100    -1.2040    -0.0410 c3         1 sah       0.022622
      3 CB          -5.3990    -0.0570     0.1880 c3         1 sah      -0.154419
      4 CG          -3.9490    -0.5400     0.1930 c3         1 sah       0.080783
      5 SD          -2.8340     0.8520     0.5430 ss         1 sah      -0.353288
      6 C           -7.8070    -0.6090     0.1080 c          1 sah       0.852992
      7 O           -8.3790    -0.1030    -0.7940 o          1 sah      -0.551460
      8 OXT         -8.3330    -0.6170     1.3310 oh         1 sah      -0.647176
      9 C5'         -1.2280     0.0030     0.4750 c3         1 sah      -0.384846
     10 C4'         -0.0910     0.9990     0.6700 c3         1 sah       0.483136
     11 O4'          1.0930     0.2530     0.8890 os         1 sah      -0.603086
     12 C3'          0.1940     1.9120    -0.5400 c3         1 sah       0.209655
     13 O3'          0.5240     3.2190    -0.1420 oh         1 sah      -0.775183
     14 C2'          1.4750     1.3100    -1.1180 c3         1 sah       0.228813
     15 O2'          2.2340     2.1740    -1.8800 oh         1 sah      -0.697483
     16 C1'          2.1540     0.7980     0.1540 c3         1 sah       0.286807
     17 N9           3.1540    -0.2100    -0.0420 na         1 sah      -0.084758
     18 C8           2.9810    -1.4890    -0.5190 cc         1 sah       0.223495
     19 N7           4.0600    -2.1730    -0.5790 nd         1 sah      -0.573472
     20 C5           5.0340    -1.3100    -0.1140 ca         1 sah      -0.089406
     21 C6           6.4140    -1.4420     0.0790 ca         1 sah       0.828522
     22 N6           7.0830    -2.5650    -0.2400 nh         1 sah      -0.969267
     23 N1           7.0870    -0.4130     0.5770 nb         1 sah      -0.832721
     24 C2           6.4230     0.7000     0.8630 ca         1 sah       0.660639
     25 N3           5.1410     0.9500     0.7240 nb         1 sah      -0.807063
     26 C4           4.4880    -0.0950     0.2290 ca         1 sah       0.486462
     27 H1          -5.4360    -2.1740    -1.5560 hn         1 sah       0.397423
     28 H2          -6.6970    -1.2630    -2.0460 hn         1 sah       0.397423
     29 H3          -6.2580    -1.9570     0.7290 h1         1 sah       0.096463
     30 H4          -5.6130     0.4240     1.1390 hc         1 sah       0.087544
     31 H5          -5.5410     0.6900    -0.5860 hc         1 sah       0.087544
     32 H6          -3.6810    -0.9630    -0.7670 h1         1 sah       0.068314
     33 H7          -3.8060    -1.3020     0.9500 h1         1 sah       0.068314
     34 H8          -7.8070    -1.1100     1.9470 ho         1 sah       0.419967
     35 H9          -1.1210    -0.5050    -0.4770 h1         1 sah       0.158761
     36 H10         -1.1730    -0.7380     1.2620 h1         1 sah       0.158761
     37 H11         -0.2840     1.6110     1.5440 h1         1 sah       0.043921
     38 H12         -0.6200     1.9270    -1.2530 h1         1 sah       0.029365
     39 H13         -0.2570     3.7110     0.0740 ho         1 sah       0.483857
     40 H14          1.2260     0.4610    -1.7430 h1         1 sah       0.064658
     41 H15          2.2100     3.0350    -1.4790 ho         1 sah       0.474944
     42 H16          2.6330     1.6090     0.6840 h2         1 sah       0.106875
     43 H17          2.0100    -1.8490    -0.7870 h5         1 sah       0.122596
     44 H18          6.5750    -3.3920    -0.4540 hn         1 sah       0.424357
     45 H19          8.0250    -2.6500     0.0650 hn         1 sah       0.424357
     46 H20          7.0200     1.4990     1.2640 h5         1 sah       0.047870
@<TRIPOS>BOND
     1     1     2 1   
     2     1    27 1   
     3     1    28 1   
     4     2     3 1   
     5     2     6 1   
     6     2    29 1   
     7     3     4 1   
     8     3    30 1   
     9     3    31 1   
    10     4     5 1   
    11     4    32 1   
    12     4    33 1   
    13     5     9 1   
    14     6     7 2   
    15     6     8 1   
    16     8    34 1   
    17     9    10 1   
    18     9    35 1   
    19     9    36 1   
    20    10    11 1   
    21    10    12 1   
    22    10    37 1   
    23    11    16 1   
    24    12    13 1   
    25    12    14 1   
    26    12    38 1   
    27    13    39 1   
    28    14    15 1   
    29    14    16 1   
    30    14    40 1   
    31    15    41 1   
    32    16    17 1   
    33    16    42 1   
    34    17    18 1   
    35    17    26 1   
    36    18    19 2   
    37    18    43 1   
    38    19    20 1   
    39    20    21 ar  
    40    20    26 ar  
    41    21    22 1   
    42    21    23 ar  
    43    22    44 1   
    44    22    45 1   
    45    23    24 ar  
    46    24    25 ar  
    47    24    46 1   
    48    25    26 ar  
@<TRIPOS>SUBSTRUCTURE
     1 sah         1 TEMP              0 ****  ****    0 ROOT
