@<TRIPOS>MOLECULE
sam
   50    52     1     0     0
SMALL
No Charge or Current Charge


@<TRIPOS>ATOM
      1 N            5.6410     0.1970    -1.9530 n3         1 sam      -1.163933
      2 CA           4.8290     0.7190    -0.8790 c3         1 sam       0.469094
      3 C            5.5190     0.7170     0.4940 c          1 sam       0.541797
      4 O            4.9530     0.4070     1.4920 o          1 sam      -0.498174
      5 OXT          6.7820     1.0920     0.5230 oh         1 sam      -0.543737
      6 CB           3.5000    -0.0520    -0.7970 c3         1 sam      -0.002233
      7 CG           2.4320     0.7090     0.0000 c3         1 sam      -0.098228
      8 SD           1.1880    -0.2760     0.8910 s4         1 sam       0.237161
      9 CE           2.1500    -1.3180     2.0120 c3         1 sam      -0.199595
     10 C5'          0.5540    -1.4280    -0.3640 c3         1 sam      -0.279928
     11 C4'         -0.4880    -2.3750     0.2400 c3         1 sam       0.102201
     12 O4'         -1.3910    -1.6690     1.0540 os         1 sam      -0.403836
     13 C3'         -1.3480    -3.0560    -0.8280 c3         1 sam       0.148214
     14 O3'         -1.8260    -4.3010    -0.4010 oh         1 sam      -0.658908
     15 C2'         -2.4990    -2.0580    -0.9940 c3         1 sam       0.329518
     16 O2'         -3.6690    -2.6120    -1.4760 oh         1 sam      -0.691726
     17 C1'         -2.6500    -1.4950     0.4320 c3         1 sam       0.057756
     18 N9          -3.0740    -0.1290     0.5110 na         1 sam      -0.054034
     19 C8          -4.1630     0.3280     1.2280 cc         1 sam       0.244122
     20 N7          -4.3570     1.5850     1.1320 nd         1 sam      -0.570687
     21 C5          -3.3430     2.0230     0.3070 ca         1 sam      -0.007513
     22 C6          -3.0190     3.2950    -0.1910 ca         1 sam       0.881790
     23 N6          -3.7140     4.3860     0.1180 nh         1 sam      -1.035346
     24 N1          -1.9660     3.4030    -1.0010 nb         1 sam      -0.788421
     25 C2          -1.2780     2.3180    -1.2920 ca         1 sam       0.508902
     26 N3          -1.4680     1.0780    -0.8800 nb         1 sam      -0.623266
     27 C4          -2.5370     0.9830    -0.0830 ca         1 sam       0.305268
     28 H1           6.1690    -0.6240    -1.7390 hn         1 sam       0.437438
     29 H2           6.1920     0.8650    -2.4490 hn         1 sam       0.437438
     30 HA           4.6180     1.7600    -1.1150 h1         1 sam       0.009915
     31 HXT          7.1330     1.2600    -0.3430 ho         1 sam       0.409699
     32 H            3.7040    -1.0220    -0.3610 hc         1 sam       0.046538
     33 H3           3.1600    -0.2140    -1.8100 hc         1 sam       0.046538
     34 H4           1.8420     1.3560    -0.6370 h1         1 sam       0.102379
     35 H5           2.8620     1.3160     0.7820 h1         1 sam       0.102379
     36 H6           2.8190    -0.6740     2.5630 h1         1 sam       0.144078
     37 H7           2.7190    -2.0600     1.4720 h1         1 sam       0.144078
     38 H8           1.4480    -1.7900     2.6840 h1         1 sam       0.144078
     39 H9           1.3810    -1.9830    -0.7860 h1         1 sam       0.137723
     40 H10          0.1140    -0.7800    -1.1080 h1         1 sam       0.137723
     41 H11          0.0070    -3.1190     0.8510 h1         1 sam       0.125164
     42 H12         -0.8200    -3.2390    -1.7520 h1         1 sam       0.112278
     43 H13         -2.0260    -4.3040     0.5270 ho         1 sam       0.447899
     44 H14         -2.2100    -1.2620    -1.6650 h1         1 sam       0.082430
     45 H15         -3.6780    -3.5450    -1.2910 ho         1 sam       0.453683
     46 H16         -3.3870    -2.0710     0.9730 h2         1 sam       0.118432
     47 H17         -4.7690    -0.3500     1.7940 h5         1 sam       0.139805
     48 H18         -4.5380     4.3220     0.6720 hn         1 sam       0.464146
     49 H19         -3.4790     5.2530    -0.3100 hn         1 sam       0.464146
     50 H20         -0.4480     2.4710    -1.9590 h5         1 sam       0.085754
@<TRIPOS>BOND
     1     1     2 1   
     2     1    28 1   
     3     1    29 1   
     4     2     3 1   
     5     2     6 1   
     6     2    30 1   
     7     3     4 2   
     8     3     5 1   
     9     5    31 1   
    10     6     7 1   
    11     6    32 1   
    12     6    33 1   
    13     7     8 1   
    14     7    34 1   
    15     7    35 1   
    16     8     9 1   
    17     8    10 1   
    18     9    36 1   
    19     9    37 1   
    20     9    38 1   
    21    10    11 1   
    22    10    39 1   
    23    10    40 1   
    24    11    12 1   
    25    11    13 1   
    26    11    41 1   
    27    12    17 1   
    28    13    14 1   
    29    13    15 1   
    30    13    42 1   
    31    14    43 1   
    32    15    16 1   
    33    15    17 1   
    34    15    44 1   
    35    16    45 1   
    36    17    18 1   
    37    17    46 1   
    38    18    19 1   
    39    18    27 1   
    40    19    20 2   
    41    19    47 1   
    42    20    21 1   
    43    21    22 ar  
    44    21    27 ar  
    45    22    23 1   
    46    22    24 ar  
    47    23    48 1   
    48    23    49 1   
    49    24    25 ar  
    50    25    26 ar  
    51    25    50 1   
    52    26    27 ar  
@<TRIPOS>SUBSTRUCTURE
     1 sam         1 TEMP              0 ****  ****    0 ROOT
